-------------------------------------------------------
          Amber 22 PMEMD                              2022
          -------------------------------------------------------

  [-O]verwriting output

File Assignments:

 Here is the input file:

07_relax_npt
&cntrl
    irest=1,
    ntx=5,
    ig=-1,
    dt=0.002,
    nstlim=500000,
    nscm=500,
    ntr=0,
    ntb=2,
    ntf=2,
    ntc=2,
    cut=10.0,
    ntt=3,
    temp0=300.0,
    gamma_ln=5.0,
    ntp=1,
    barostat=2,
    pres0=1.01325,
    mcbarint=100,
    comp=44.6,
    taup=1.0,
    ntxo=2,
    ntwr=5000,
    ntpr=500,
    ntwx=5000,
    ioutfm=1,
    iwrap=1,
&end

Note: ig = -1. Setting random seed to   132987 based on wallclock time in
      microseconds and disabling the synchronization of random numbers
      between tasks to improve performance.

--------------------------------------------------------------------------------
   1.  RESOURCE   USE:
--------------------------------------------------------------------------------

 getting box info from netcdf restart file
 NATOM  =   33582 NTYPES =      19 NBONH =   31714 MBONA  =    1852
 NTHETH =    4022 MTHETA =    2505 NPHIH =    8139 MPHIA  =    7890
 NHPARM =       0 NPARM  =       0 NNB   =   59724 NRES   =   10270
 NBONA  =    1852 NTHETA =    2505 NPHIA =    7890 NUMBND =      89
 NUMANG =     205 NPTRA  =     205 NATYP =      47 NPHB   =       0
 IFBOX  =       1 NMXRS  =      36 IFCAP =       0 NEXTRA =       0
 NCOPY  =       0

     BOX TYPE: RECTILINEAR

--------------------------------------------------------------------------------
   2.  CONTROL  DATA  FOR  THE  RUN
--------------------------------------------------------------------------------

default_name

General flags:
     imin    =       0, nmropt  =       0

Nature and format of input:
     ntx     =       5, irest   =       1, ntrx    =       1

Nature and format of output:
     ntxo    =       2, ntpr    =     500, ntrx    =       1, ntwr    =    5000
     iwrap   =       1, ntwx    =    5000, ntwv    =       0, ntwe    =       0
     ioutfm  =       1, ntwprt  =       0, idecomp =       0, rbornstat=      0

Potential function:
     ntf     =       2, ntb     =       2, igb     =       0, nsnb    =      25
     ipol    =       0, gbsa    =       0, iesp    =       0
     dielc   =   1.00000, cut     =  10.00000, intdiel =   1.00000

Frozen or restrained atoms:
     ibelly  =       0, ntr     =       0

Molecular dynamics:
     nstlim  =    500000, nscm    =       500, nrespa  =         1
     t       =   0.00000, dt      =   0.00200, vlimit  =  20.00000

Langevin dynamics temperature regulation:
     ig      =  132987
     temp0   = 300.00000, tempi   =   0.00000, gamma_ln=   5.00000

Pressure regulation:
     ntp     =       1
     pres0   =   1.01325, comp    =  44.60000, taup    =   1.00000
     Monte-Carlo Barostat:
     mcbarint  =     100

SHAKE:
     ntc     =       2, jfastw  =       0
     tol     =   0.00001

Ewald parameters:
     verbose =       0, ew_type =       0, nbflag  =       1, use_pme =       1
     vdwmeth =       1, eedmeth =       1, netfrc  =       1
     Box X =   61.902   Box Y =   69.655   Box Z =   77.033
     Alpha =   90.000   Beta  =   90.000   Gamma =   90.000
     NFFT1 =   64       NFFT2 =   72       NFFT3 =   80
     Cutoff=   10.000   Tol   =0.100E-04
     Ewald Coefficient =  0.27511
     Interpolation order =    4

--------------------------------------------------------------------------------
   3.  ATOMIC COORDINATES AND VELOCITIES
--------------------------------------------------------------------------------

default_name
 begin time read from input coords =  1020.000 ps

 Number of triangulated 3-point waters found:     9985

     Sum of charges from parm topology file =  -0.00000010
     Forcing neutrality...

--------------------------------------------------------------------------------
   4.  RESULTS
 NSTEP =      500   TIME(PS) =    1021.000  TEMP(K) =   302.32  PRESS =     0.0
 Etot   =   -109458.5000  EKtot   =     20735.8122  EPtot      =   -130194.3121
 BOND   =       678.7182  ANGLE   =      1926.4968  DIHED      =      1263.9976
 UB     =         0.0000  IMP     =         0.0000  CMAP       =       159.8573
 1-4 NB =       800.8682  1-4 EEL =     10477.9827  VDWAALS    =     19893.6001
 EELEC  =   -165395.8331  EHBOND  =         0.0000  RESTRAINT  =         0.0000
 EKCMT  =         0.0000  VIRIAL  =         0.0000  VOLUME     =    332147.5960
                                                    Density    =         1.0361
 Ewald error estimate:   0.2092E-04
 ------------------------------------------------------------------------------

      A V E R A G E S   O V E R    1000 S T E P S

 NSTEP =   500000   TIME(PS) =    2020.000  TEMP(K) =   299.99  PRESS =     0.0
 Etot   =   -109542.3380  EKtot   =     20576.0791  EPtot      =   -130118.4171
 BOND   =       686.6504  ANGLE   =      1912.6143  DIHED      =      1280.8525
 UB     =         0.0000  IMP     =         0.0000  CMAP       =       142.6057
 1-4 NB =       801.8583  1-4 EEL =     10477.5664  VDWAALS    =     19555.5017
 EELEC  =   -164976.0665  EHBOND  =         0.0000  RESTRAINT  =         0.0000
 EKCMT  =         0.0000  VIRIAL  =         0.0000  VOLUME     =    332074.6112
                                                    Density    =         1.0364
 Ewald error estimate:   0.5298E-04
 ------------------------------------------------------------------------------

      R M S  F L U C T U A T I O N S

 NSTEP =   500000   TIME(PS) =    2020.000  TEMP(K) =     2.33  PRESS =     0.0
 Etot   =       228.8558  EKtot   =       159.9514  EPtot      =       164.8342
 BOND   =        21.8538  ANGLE   =        32.9117  DIHED      =        17.7774
 UB     =         0.0000  IMP     =         0.0000  CMAP       =         7.0593
 1-4 NB =        11.7985  1-4 EEL =        32.6765  VDWAALS    =       183.9870
 EELEC  =       277.8390  EHBOND  =         0.0000  RESTRAINT  =         0.0000
 EKCMT  =         0.0000  VIRIAL  =         0.0000  VOLUME     =       709.7179
                                                    Density    =         0.0022
 Ewald error estimate:   0.3974E-04
 ------------------------------------------------------------------------------
